# Detailed PRF mechanism
#
# Downloaded from https://www.cerfacs.fr/cantera/mechanisms/iso-oct.php#curran
# by Dan Haworth, 5 June 2019
#
# From LLNL Curran et al. mechanism available at https://combustion.llnl.gov/archived-mechanisms/surrogates/prf-isooctane-n-heptane-mixture
# See there for references and intended use
#

units(length='cm', time='s', quantity='mol', act_energy='cal/mol')

ideal_gas(name='gas',
          elements="H C O N Ar",
          species="""H               H2              O               O2              OH              
                     H2O             N2              CO              HCO             CO2             
                     CH3             CH4             HO2             H2O2            CH2O            
                     CH3O            C2H6            C2H4            C2H5            CH2             
                     CH              C2H             C2H2            C2H3            CH3OH           
                     CH2OH           CH2CO           HCCO            C2H5OH          PC2H4OH         
                     SC2H4OH         CH3CO           CH2CHO          CH3CHO          C3H4-A          
                     C3H4-P          C3H6            C4H6            NC3H7           IC3H7           
                     C3H8            IC4H7           IC4H8           C4H7            C4H8-2          
                     C4H8-1          SC4H9           PC4H9           TC4H9           IC4H9           
                     IC4H10          C4H10           CH3COCH3        CH3COCH2        C2H5CHO         
                     C2H5CO          C5H9            C5H10-1         C5H10-2         IC5H12          
                     AC5H11          BC5H11          CC5H11          DC5H11          AC5H10          
                     BC5H10          CC5H10          IC5H9           NC5H12          C5H11-1         
                     C5H11-2         C5H11-3         NEOC5H12        NEOC5H11        C2H5O           
                     CH3O2           C2H5O2          CH3O2H          C2H5O2H         C2H3O1-2        
                     CH3CO2          C2H4O1-2        C2H4O2H         O2C2H4OH        CH3CO3          
                     CH3CO3H         C2H3CO          C2H3CHO         C3H5O           C3H6OOH1-2      
                     C3H6OOH1-3      C3H6OOH2-1      C3H6OOH1-2O2    C3H6OOH1-3O2    C3H6OOH2-1O2    
                     NC3H7O          IC3H7O          NC3H7O2H        IC3H7O2H        NC3H7O2         
                     IC3H7O2         C3H6O1-3        IC4H8O          IC4H8OH         IO2C4H8OH       
                     IC4H7O          C4H7O           C4H8OH-1        C4H8OH-2        C4H8OH-1O2      
                     C4H8OH-2O2      C4H8OOH1-2O2    C4H8OOH1-3O2    C4H8OOH1-4O2    C4H8OOH2-1O2    
                     C4H8OOH2-3O2    C4H8OOH2-4O2    TC4H8OOH-IO2    IC4H8OOH-IO2    IC4H8OOH-TO2    
                     C4H8OOH1-2      C4H8OOH1-3      C4H8OOH1-4      C4H8OOH2-1      C4H8OOH2-3      
                     C4H8OOH2-4      IC4H8O2H-I      IC4H8O2H-T      TC4H8O2H-I      C4H8O1-2        
                     C4H8O1-3        C4H8O1-4        C4H8O2-3        CC4H8O          PC4H9O          
                     SC4H9O          IC4H9O          TC4H9O          PC4H9O2H        SC4H9O2H        
                     IC4H9O2H        TC4H9O2H        TC4H9O2         IC4H9O2         SC4H9O2         
                     PC4H9O2         CH3COCH2O2      CH3COCH2O2H     CH3COCH2O       NEOC5KETOX      
                     NEOC5KEJOL      AC5H11O2        BC5H11O2        CC5H11O2        DC5H11O2        
                     AC5H11O2H       BC5H11O2H       CC5H11O2H       DC5H11O2H       AC5H11O         
                     BC5H11O         CC5H11O         DC5H11O         AC5H10OOH-A     AC5H10OOH-B     
                     AC5H10OOH-C     AC5H10OOH-D     BC5H10OOH-A     BC5H10OOH-C     BC5H10OOH-D     
                     CC5H10OOH-A     CC5H10OOH-B     CC5H10OOH-D     DC5H10OOH-A     DC5H10OOH-B     
                     DC5H10OOH-C     AC5H10OOH-AO2   AC5H10OOH-BO2   AC5H10OOH-CO2   AC5H10OOH-DO2   
                     BC5H10OOH-AO2   BC5H10OOH-CO2   BC5H10OOH-DO2   CC5H10OOH-AO2   CC5H10OOH-BO2   
                     CC5H10OOH-DO2   DC5H10OOH-AO2   DC5H10OOH-BO2   DC5H10OOH-CO2   A-AC5H10O       
                     A-BC5H10O       A-CC5H10O       A-DC5H10O       B-CC5H10O       B-DC5H10O       
                     C-DC5H10O       C5H11O2-1       C5H11O2-2       C5H11O2-3       C5H11O2H-1      
                     C5H11O2H-2      C5H11O2H-3      C5H11O-1        C5H11O-2        C5H11O-3        
                     C5H10OOH1-2     C5H10OOH1-3     C5H10OOH1-4     C5H10OOH1-5     C5H10OOH2-1     
                     C5H10OOH2-3     C5H10OOH2-4     C5H10OOH2-5     C5H10OOH3-2     C5H10OOH3-1     
                     C5H10OOH1-2O2   C5H10OOH1-3O2   C5H10OOH1-4O2   C5H10OOH1-5O2   C5H10OOH2-1O2   
                     C5H10OOH2-3O2   C5H10OOH2-4O2   C5H10OOH2-5O2   C5H10OOH3-1O2   C5H10OOH3-2O2   
                     C5H10O1-2       C5H10O1-3       C5H10O1-4       C5H10O1-5       C5H10O2-3       
                     C5H10O2-4       NEOC5H11O2      NEOC5H11O2H     NEOC5H11O       NEOC5H10OOH     
                     NEOC5H10OOH-O2  NEO-C5H10O      C3H5-A          C3H5-S          C3H5-T          
                     C3H3            C3H2            C3H6O1-2        HO2CHO          O2CHO           
                     OCHO            CH2(S)          C3KET12         C3KET13         C3KET21         
                     NC4KET12        NC4KET13        NC4KET14        NC4KET21        NC4KET23        
                     NC4KET24        IC4KETII        IC4KETIT        NEOC5KET        NC5KET12        
                     NC5KET13        NC5KET14        NC5KET15        NC5KET21        NC5KET23        
                     NC5KET24        NC5KET25        NC5KET31        NC5KET32        IC5KETAA        
                     IC5KETAB        IC5KETAC        IC5KETAD        IC5KETCA        IC5KETCB        
                     IC5KETCD        IC5KETDA        IC5KETDB        IC5KETDC        IC4H7-I1        
                     C3H6OH          HOC3H6O2        O2C2H4O2H       CH2O2HCHO       IC4H7OOH        
                     IC3H5CHO        TC3H6OCHO       TC3H6CHO        IC3H7CHO        IC4H7OH         
                     IC3H6CO         IC4H6OH         IC3H5CO         IC3H7CO         TC3H6O2CHO      
                     TC3H6O2HCO      IC3H5O2HCHO     TC3H6OHCHO      TC3H6OH         IC3H5OH         
                     TC4H8CHO        O2C4H8CHO       O2HC4H8CO       O2HC4H7CHO      C3H5OH          
                     CH2CCH2OH       NC3H7CHO        NC3H7CO         CH2CH2COCH3     C2H5COCH2       
                     C2H5COCH3       CH2CHOOHCOCH3   CH3CHOOHCOCH3   CH3CHOOCOCH3    CH3CHCOCH3      
                     C2H3COCH3       CH3CHCO         CH2CH2CHO       C3H6CHO-3       C3H6CHO-2       
                     C2H5CHCO        IC3H5COCH3      IC3H5COCH2      AC3H4COCH3      SC3H5COCH2      
                     CH3CHOCHO       CH3CHCHO        SC3H5CHO        SC3H5CO         IC3H6CHO        
                     C3H6CHO-1       C2H5COC2H5      C2H5COC2H4P     C2H5COC2H4S     C2H5COC2H3      
                     PC2H4COC2H3     SC2H4COC2H3     IC3H6CHCHO      IC3H6CHCO       AC3H5CHCHO      
                     IC3H6CHCOCH3    AC3H5CHCOCH3    IC3H6CHCOCH2    NC3H7COCH3      NC3H7COCH2      
                     C3H6COCH3-1     C3H6COCH3-2     C3H6COCH3-3     IC3H7COCH3      IC3H7COCH2      
                     IC3H6COCH3      TC3H6COCH3      NC3H7COC2H5     C3H6COC2H5-1    C3H6COC2H5-2    
                     C3H6COC2H5-3    NC3H7COC2H4P    NC3H7COC2H4S    IC3H7COC2H5     IC3H6COC2H5     
                     TC3H6COC2H5     IC3H7COC2H4P    IC3H7COC2H4S    IC3H7COC2H3     IC3H6COC2H3     
                     TC3H6COC2H3     IC3H5COC2H5     AC3H4COC2H5     IC3H5COC2H4P    IC3H5COC2H4S    
                     NC4H9CHO        NC4H9CO         AC3H5CHO        AC3H5CO         C2H3CHCHO       
                     C4H8CHO-1       C4H8CHO-2       C4H8CHO-3       C4H8CHO-4       NEOC5H9Q2       
                     NEOC5H9Q2-N     IC4H6Q2-II      HOCH2O          HOCHO           IC6H14          
                     AC6H13          BC6H13          CC6H13          DC6H13          EC6H13          
                     AC6H12          BC6H12          CC6H12          DC6H12          IC6H11          
                     AC6H13O2        BC6H13O2        CC6H13O2        DC6H13O2        EC6H13O2        
                     AC6H13O2H       BC6H13O2H       CC6H13O2H       DC6H13O2H       EC6H13O2H       
                     AC6H13O         BC6H13O         CC6H13O         DC6H13O         EC6H13O         
                     AC6H12OOH-A     AC6H12OOH-B     AC6H12OOH-C     AC6H12OOH-D     AC6H12OOH-E     
                     BC6H12OOH-A     BC6H12OOH-C     BC6H12OOH-D     BC6H12OOH-E     CC6H12OOH-A     
                     CC6H12OOH-B     CC6H12OOH-D     CC6H12OOH-E     DC6H12OOH-A     DC6H12OOH-B     
                     DC6H12OOH-C     DC6H12OOH-E     EC6H12OOH-A     EC6H12OOH-B     EC6H12OOH-C     
                     EC6H12OOH-D     A-AC6H12O       A-BC6H12O       A-CC6H12O       A-DC6H12O       
                     A-EC6H12O       B-CC6H12O       B-DC6H12O       B-EC6H12O       C-DC6H12O       
                     C-EC6H12O       D-EC6H12O       AC6H12OOH-AO2   AC6H12OOH-BO2   AC6H12OOH-CO2   
                     AC6H12OOH-DO2   AC6H12OOH-EO2   BC6H12OOH-AO2   BC6H12OOH-CO2   BC6H12OOH-DO2   
                     BC6H12OOH-EO2   CC6H12OOH-AO2   CC6H12OOH-BO2   CC6H12OOH-DO2   CC6H12OOH-EO2   
                     DC6H12OOH-AO2   DC6H12OOH-BO2   DC6H12OOH-CO2   DC6H12OOH-EO2   EC6H12OOH-AO2   
                     EC6H12OOH-BO2   EC6H12OOH-CO2   EC6H12OOH-DO2   IC6KETAA        IC6KETAB        
                     IC6KETAC        IC6KETAD        IC6KETAE        IC6KETCA        IC6KETCB        
                     IC6KETCD        IC6KETCE        IC6KETDA        IC6KETDB        IC6KETDC        
                     IC6KETDE        IC6KETEA        IC6KETEB        IC6KETEC        IC6KETED        
                     NC4H9CHO-2      NC4H9CO-2       C4H8CHO1-2      C4H8CHO2-2      C4H8CHO3-2      
                     C4H8CHO4-2      IC4H9CHO        IC4H9CO         IC3H6CH2CHO     TC3H6CH2CHO     
                     IC3H7CHCHO      IC5H11CHO       IC5H11CO        AC5H10CHO       BC5H10CHO       
                     CC5H10CHO       DC5H10CHO       C4H7CHO1-4      C4H7CO1-4       C4H6CHO1-43     
                     C4H6CHO1-44     C4H7CHO2-1      C4H7CO2-1       C4H6CHO2-11     NC5H11CHO-2     
                     NC5H11CO-2      C5H10CHO1-2     C5H10CHO2-2     C5H10CHO3-2     C5H10CHO4-2     
                     C5H10CHO5-2     IC4H9COCH3      IC4H9COCH2      IC3H6CH2COCH3   IC3H7CHCOCH3    
                     TC3H6CH2COCH3   NEOC6H14        FC6H13          GC6H13          HC6H13          
                     NEOC6H12        NEOC6H11        FC6H13O2        GC6H13O2        HC6H13O2        
                     FC6H13O2H       GC6H13O2H       HC6H13O2H       FC6H13O         GC6H13O         
                     HC6H13O         FC6H12OOH-F     FC6H12OOH-G     FC6H12OOH-H     GC6H12OOH-F     
                     GC6H12OOH-H     HC6H12OOH-F     HC6H12OOH-G     FC6H12OOH-FO2   FC6H12OOH-GO2   
                     FC6H12OOH-HO2   GC6H12OOH-FO2   GC6H12OOH-HO2   HC6H12OOH-FO2   HC6H12OOH-GO2   
                     F-FC6H12O       F-GC6H12O       F-HC6H12O       G-HC6H12O       NEOC6KETFF      
                     NEOC6KETFG      NEOC6KETFH      NEOC6KETGF      NEOC6KETGH      NEOC6KETHF      
                     NEOC6KETHG      TC4H9CHO        TC4H9CO         NEOC5H11CHO     NEOC5H11CO      
                     TC4H9CHCHO      TC4H8CH2CHO     IC4H7CHO        IC4H7CO         AC3H4CH2CHO     
                     IC3H5CHCHO      IC5H11CHO-B     IC5H11CO-B      IC5H10CHO-BA    IC5H10CHO-BC    
                     IC5H10CHO-BD    C4H7CHO1-2      C4H7CO1-2       C4H6CHO1-23     C4H6CHO1-24     
                     C4H7CHO2-2      C4H7CO2-2       C4H6CHO2-21     C4H6CHO2-24     CH2CCHCH3       
                     TC4H9COCH3      TC4H9COCH2      TC4H8COCH3      CH2CCHO         C7H162-4        
                     XC7H15          YC7H15          ZC7H15          XC7H14          YC7H14          
                     XC7H13          XC7H15O2        YC7H15O2        ZC7H15O2        XC7H15O2H       
                     YC7H15O2H       ZC7H15O2H       XC7H15O         YC7H15O         ZC7H15O         
                     XC7H14OOH-X1    XC7H14OOH-Y1    XC7H14OOH-Z     XC7H14OOH-Y2    XC7H14OOH-X2    
                     YC7H14OOH-X1    YC7H14OOH-Z     YC7H14OOH-Y2    YC7H14OOH-X2    ZC7H14OOH-X     
                     ZC7H14OOH-Y     XC7H14OOH-X1O2  XC7H14OOH-X2O2  XC7H14OOH-Y1O2  XC7H14OOH-Y2O2  
                     XC7H14OOH-ZO2   YC7H14OOH-X1O2  YC7H14OOH-X2O2  YC7H14OOH-Y2O2  YC7H14OOH-ZO2   
                     ZC7H14OOH-XO2   ZC7H14OOH-YO2   X-X1C7H14O      X-X2C7H14O      X-Y1C7H14O      
                     X-Y2C7H14O      X-ZC7H14O       Y-YC7H14O       Y-ZC7H14O       C7KET24XX1      
                     C7KET24XY1      C7KET24XZ       C7KET24XY2      C7KET24XX2      C7KET24ZX       
                     C7KET24ZY       NEOC7H16        NC7H15          OC7H15          PC7H15          
                     QC7H15          OC7H14          PC7H14          PC7H13          NC7H15O2        
                     OC7H15O2        PC7H15O2        QC7H15O2        NC7H15O2H       OC7H15O2H       
                     PC7H15O2H       QC7H15O2H       NC7H15O         OC7H15O         PC7H15O         
                     QC7H15O         NC7H14OOH-N2    NC7H14OOH-Q     QC7H14OOH-N     NC7H14OOH-O     
                     NC7H14OOH-P     QC7H14OOH-O     QC7H14OOH-P     OC7H14OOH-N     OC7H14OOH-Q     
                     PC7H14OOH-N     PC7H14OOH-Q     OC7H14OOH-P     PC7H14OOH-O     NC7H14OOH-N2O2  
                     NC7H14OOH-QO2   QC7H14OOH-NO2   NC7H14OOH-OO2   NC7H14OOH-PO2   QC7H14OOH-OO2   
                     QC7H14OOH-PO2   OC7H14OOH-NO2   OC7H14OOH-QO2   PC7H14OOH-NO2   PC7H14OOH-QO2   
                     OC7H14OOH-PO2   PC7H14OOH-OO2   N-NC7H14O       N-OC7H14O       N-PC7H14O       
                     N-QC7H14O       O-PC7H14O       O-QC7H14O       P-QC7H14O       NEOC7KETNN      
                     NEOC7KETNO      NEOC7KETNP      NEOC7KETNQ      NEOC7KETON      NEOC7KETOP      
                     NEOC7KETOQ      NEOC7KETPN      NEOC7KETPO      NEOC7KETPQ      NEOC7KETQN      
                     NEOC7KETQO      NEOC7KETQP      IC8H18          AC8H17          BC8H17          
                     CC8H17          DC8H17          IC8H16          JC8H16          IC8H14          
                     IC8H15          AC8H17O2        BC8H17O2        CC8H17O2        DC8H17O2        
                     AC8H17O2H       BC8H17O2H       CC8H17O2H       DC8H17O2H       AC8H17O         
                     BC8H17O         CC8H17O         DC8H17O         AC8H16OOH-A     AC8H16OOH-B     
                     AC8H16OOH-C     AC8H16OOH-D     BC8H16OOH-C     BC8H16OOH-A     BC8H16OOH-D     
                     CC8H16OOH-D     CC8H16OOH-B     CC8H16OOH-A     DC8H16OOH-C     DC8H16OOH-D     
                     DC8H16OOH-B     DC8H16OOH-A     IC8ETERAA       IC8ETERAB       IC8ETERAC       
                     IC8ETERAD       IC8ETERBC       IC8ETERBD       IC8ETERCD       IC8ETERDD       
                     AC8H16OOH-AO2   AC8H16OOH-BO2   AC8H16OOH-CO2   AC8H16OOH-DO2   BC8H16OOH-CO2   
                     BC8H16OOH-AO2   BC8H16OOH-DO2   CC8H16OOH-DO2   CC8H16OOH-BO2   CC8H16OOH-AO2   
                     DC8H16OOH-CO2   DC8H16OOH-DO2   DC8H16OOH-BO2   DC8H16OOH-AO2   IC8KETAA        
                     IC8KETAB        IC8KETAC        IC8KETAD        IC8KETBA        IC8KETBC        
                     IC8KETBD        IC8KETDA        IC8KETDB        IC8KETDC        IC8KETDD        
                     IC6H13CHO-B     IC6H13CO-B      AC6H12CHO-B     CC6H12CHO-B     DC6H12CHO-B     
                     EC6H12CHO-B     IC6H13CHO-D     IC6H13CO-D      AC6H12CHO-D     BC6H12CHO-D     
                     CC6H12CHO-D     DC6H12CHO-D     EC6H12CHO-D     IC3H7COC3H7-I   IC3H7COC3H6-I   
                     IC3H7COC3H6-T   TC4H9COC2H5     TC4H8COC2H5     TC4H9COC2H4S    TC4H9COC2H4P    
                     NEOC5H11COCH3   NEOC5H10COCH3   TC4H9CHCOCH3    NEOC5H11COCH2   NEOC6H13CHO     
                     NEOC6H13CO      FC6H12CHO       GC6H12CHO       HC6H12CHO       IC4H7COCH3      
                     IC4H7COCH2      IC3H5CHCOCH3    AC3H4CH2COCH3   XC7H13OOH-X1    XC7H13O-X1      
                     YC7H13OOH-X1    YC7H13O-X1      OC7H13OOH-N     OC7H13O-N       XC7H13OOH-Z     
                     XC7H13O-Z       PC7H13OOH-O     PC7H13O-O       OC7H13OOH-Q     OC7H13O-Q       
                     YC7H13OOH-X2    YC7H13O-X2      AC3H5OOH        NEOC6H11-H      CC6H11O-B       
                     XC7H14OH-Y      YC7H14OH-X      ZC7H14OH-Y      YC7H14OH-Z      IC4H7OH-I1      
                     OC7H14OH-P      PC7H14OH-O      QC7H14OH-P      PC7H14OH-Q      XC7H14OH-YO2    
                     XC7H14O-YO2H    YC7H14OH-XO2    YC7H14O-XO2H    ZC7H14OH-YO2    ZC7H14O-YO2H    
                     YC7H14OH-ZO2    YC7H14O-ZO2H    OC7H14OH-PO2    OC7H14O-PO2H    PC7H14OH-OO2    
                     PC7H14O-OO2H    QC7H14OH-PO2    QC7H14O-PO2H    PC7H14OH-QO2    PC7H14O-QO2H    
                     CC8H16OH-B      BC8H16OH-C      CC8H16OH-D      DC8H16OH-C      CC8H16OH-BO2    
                     CC8H16O-BO2H    BC8H16OH-CO2    BC8H16O-CO2H    CC8H16OH-DO2    CC8H16O-DO2H    
                     DC8H16OH-CO2    DC8H16O-CO2H    NC6H14          C6H13-1         C6H13-2         
                     C6H13-3         C6H12-1         C6H12-2         C6H12-3         C6H11           
                     C6H12O1-2       C6H12O1-3       C6H12O1-4       C6H12O1-5       C6H12O2-3       
                     C6H12O2-4       C6H12O2-5       C6H12O3-4       C6H13O2H-1      C6H13O2H-2      
                     C6H13O2H-3      C6H13O2-1       C6H13O2-2       C6H13O2-3       C6H12OOH1-2     
                     C6H12OOH1-3     C6H12OOH1-4     C6H12OOH1-5     C6H12OOH2-1     C6H12OOH2-3     
                     C6H12OOH2-4     C6H12OOH2-5     C6H12OOH2-6     C6H12OOH3-1     C6H12OOH3-2     
                     C6H12OOH3-4     C6H12OOH3-5     C6H12OOH3-6     C6H12OOH1-2O2   C6H12OOH1-3O2   
                     C6H12OOH1-4O2   C6H12OOH1-5O2   C6H12OOH2-1O2   C6H12OOH2-3O2   C6H12OOH2-4O2   
                     C6H12OOH2-5O2   C6H12OOH2-6O2   C6H12OOH3-1O2   C6H12OOH3-2O2   C6H12OOH3-4O2   
                     C6H12OOH3-5O2   C6H12OOH3-6O2   NC6KET12        NC6KET13        NC6KET14        
                     NC6KET15        NC6KET21        NC6KET23        NC6KET24        NC6KET25        
                     NC6KET26        NC6KET31        NC6KET32        NC6KET34        NC6KET35        
                     NC6KET36        C6H13O-1        C6H13O-2        C6H13O-3        NC7H16          
                     C7H15-1         C7H15-2         C7H15-3         C7H15-4         C7H14-1         
                     C7H14-2         C7H14-3         C7H13           C7H15O2-1       C7H15O2-2       
                     C7H15O2-3       C7H15O2-4       C7H15O2H-1      C7H15O2H-2      C7H15O2H-3      
                     C7H15O2H-4      C7H15O-1        C7H15O-2        C7H15O-3        C7H15O-4        
                     C7H14OOH1-2     C7H14OOH1-3     C7H14OOH1-4     C7H14OOH1-5     C7H14OOH2-1     
                     C7H14OOH2-3     C7H14OOH2-4     C7H14OOH2-5     C7H14OOH2-6     C7H14OOH3-1     
                     C7H14OOH3-2     C7H14OOH3-4     C7H14OOH3-5     C7H14OOH3-6     C7H14OOH3-7     
                     C7H14OOH4-1     C7H14OOH4-2     C7H14OOH4-3     C7H14OOH1-2O2   C7H14OOH1-3O2   
                     C7H14OOH1-4O2   C7H14OOH1-5O2   C7H14OOH2-1O2   C7H14OOH2-3O2   C7H14OOH2-4O2   
                     C7H14OOH2-5O2   C7H14OOH2-6O2   C7H14OOH3-1O2   C7H14OOH3-2O2   C7H14OOH3-4O2   
                     C7H14OOH3-5O2   C7H14OOH3-6O2   C7H14OOH3-7O2   C7H14OOH4-1O2   C7H14OOH4-2O2   
                     C7H14OOH4-3O2   C7H14O1-2       C7H14O1-3       C7H14O1-4       C7H14O1-5       
                     C7H14O2-3       C7H14O2-4       C7H14O2-5       C7H14O2-6       C7H14O3-4       
                     C7H14O3-5       NC7KET12        NC7KET13        NC7KET14        NC7KET15        
                     NC7KET21        NC7KET23        NC7KET24        NC7KET25        NC7KET26        
                     NC7KET31        NC7KET32        NC7KET34        NC7KET35        NC7KET36        
                     NC7KET37        NC7KET41        NC7KET42        NC7KET43        NC5H11CHO       
                     NC5H11CO        C5H10CHO-1      C5H10CHO-2      C5H10CHO-3      C5H10CHO-4      
                     C5H10CHO-5      NC4H9COCH3      NC4H9COCH2      C4H8COCH3-1     C4H8COCH3-2     
                     C4H8COCH3-3     C4H8COCH3-4     C4H7OOH1-4      C4H7O1-4        C5H9OOH1-4      
                     C5H9O1-4        C5H9OOH1-5      C5H9O1-5        C6H11OOH1-4     C6H11O1-4       
                     C6H11OOH1-5     C6H11O1-5       C4H71-4         AR""",
          reactions='all',
          initial_state=state(temperature=300.0, pressure=OneAtm))

#-------------------------------------------------------------------------------
# Species data
# Mechanism contains 1034 species and 8453 reactions.
#-------------------------------------------------------------------------------

species(name='H',
        atoms='H:1',
        thermo=(NASA([300.00, 1000.00],
                     [ 2.50104422E+00,  0.00000000E+00,  0.00000000E+00,
                       0.00000000E+00,  0.00000000E+00,  2.54747466E+04,
                      -4.65341317E-01]),
                NASA([1000.00, 5000.00],
                     [ 2.50104422E+00,  0.00000000E+00,  0.00000000E+00,
                       0.00000000E+00,  0.00000000E+00,  2.54747466E+04,
                      -4.65341317E-01])),
        note='8/12/99THERM')

species(name='H2',
        atoms='H:2',
        thermo=(NASA([300.00, 1000.00],
                     [ 3.29812400E+00,  8.24944200E-04, -8.14301500E-07,
                      -9.47543400E-11,  4.13487200E-13, -1.01252100E+03,
                      -3.29409400E+00]),
                NASA([1000.00, 5000.00],
                     [ 2.99142300E+00,  7.00064400E-04, -5.63382900E-08,
                      -9.23157800E-12,  1.58275200E-15, -8.35034000E+02,
                      -1.35511000E+00])),
        note='121286')

species(name='O',
        atoms='O:1',
        thermo=(NASA([300.00, 1000.00],
                     [ 2.94642900E+00, -1.63816600E-03,  2.42103200E-06,
                      -1.60284300E-09,  3.89069600E-13,  2.91476400E+04,
                       2.96399500E+00]),
                NASA([1000.00, 5000.00],
                     [ 2.54206000E+00, -2.75506200E-05, -3.10280300E-09,
                       4.55106700E-12, -4.36805200E-16,  2.92308000E+04,
                       4.92030800E+00])),
        note='120186')

species(name='O2',
        atoms='O:2',
        thermo=(NASA([300.00, 1000.00],
                     [ 3.21293600E+00,  1.12748600E-03, -5.75615000E-07,
                       1.31387700E-09, -8.76855400E-13, -1.00524900E+03,
                       6.03473800E+00]),
                NASA([1000.00, 5000.00],
                     [ 3.69757800E+00,  6.13519700E-04, -1.25884200E-07,
                       1.77528100E-11, -1.13643500E-15, -1.23393000E+03,
                       3.18916600E+00])),
        note='121386')

species(name='OH',
        atoms='H:1 O:1',
        thermo=(NASA([300.00, 1357.00],
                     [ 3.43586219E+00,  2.02235804E-04, -1.13546412E-07,
                       2.42445149E-10, -7.43651031E-14,  3.74321252E+03,
                       2.45014127E+00]),
                NASA([1357.00, 5000.00],
                     [ 2.62599754E+00,  1.31992406E-03, -3.59724670E-07,
                       4.25630800E-11, -1.82048016E-15,  4.12085374E+03,
                       7.10667307E+00])),
        note='8/12/99THERM')

species(name='H2O',
        atoms='H:2 O:1',
        thermo=(NASA([300.00, 1000.00],
                     [ 3.38684200E+00,  3.47498200E-03, -6.35469600E-06,
                       6.96858100E-09, -2.50658800E-12, -3.02081100E+04,
                       2.59023300E+00]),
                NASA([1000.00, 5000.00],
                     [ 2.67214600E+00,  3.05629300E-03, -8.73026000E-07,
                       1.20099600E-10, -6.39161800E-15, -2.98992100E+04,
                       6.86281700E+00])),
        note='20387')

species(name='N2',
        atoms='N:2',
        thermo=(NASA([300.00, 1000.00],
                     [ 3.29867700E+00,  1.40824000E-03, -3.96322200E-06,
                       5.64151500E-09, -2.44485500E-12, -1.02090000E+03,
                       3.95037200E+00]),
                NASA([1000.00, 5000.00],
                     [ 2.92664000E+00,  1.48797700E-03, -5.68476100E-07,
                       1.00970400E-10, -6.75335100E-15, -9.22797700E+02,
                       5.98052800E+00])),
        note='121286')

species(name='CO',
        atoms='C:1 O:1',
        thermo=(NASA([300.00, 1000.00],
                     [ 3.26245200E+00,  1.51194100E-03, -3.88175500E-06,
                       5.58194400E-09, -2.47495100E-12, -1.43105400E+04,
                       4.84889700E+00]),
                NASA([1000.00, 5000.00],
                     [ 3.02507800E+00,  1.44268900E-03, -5.63082800E-07,
                       1.01858100E-10, -6.91095200E-15, -1.42683500E+04,
                       6.10821800E+00])),
        note='121286')

species(name='HCO',
        atoms='H:1 C:1 O:1',
        thermo=(NASA([300.00, 1000.00],
                     [ 2.89833000E+00,  6.19914700E-03, -9.62308400E-06,
                       1.08982500E-08, -4.57488500E-12,  4.15992200E+03,
                       8.98361400E+00]),
                NASA([1000.00, 5000.00],
                     [ 3.55727100E+00,  3.34557300E-03, -1.33500600E-06,
                       2.47057300E-10, -1.71385100E-14,  3.91632400E+03,
                       5.55229900E+00])),
        note='121286')

species(name='CO2',
        atoms='C:1 O:2',
        thermo=(NASA([300.00, 1000.00],
                     [ 2.27572500E+00,  9.92207200E-03, -1.04091100E-05,
                       6.86668700E-09, -2.11728000E-12, -4.83731400E+04,
                       1.01884900E+01]),
                NASA([1000.00, 5000.00],
                     [ 4.45362300E+00,  3.14016900E-03, -1.27841100E-06,
                       2.39399700E-10, -1.66903300E-14, -4.89669600E+04,
                      -9.55395900E-01])),
        note='121286')

species(name='CH3',
        atoms='H:3 C:1',
        thermo=(NASA([300.00, 1000.00],
                     [ 2.43044300E+00,  1.11241000E-02, -1.68022000E-05,
                       1.62182900E-08, -5.86495300E-12,  1.64237800E+04,
                       6.78979400E+00]),
                NASA([1000.00, 5000.00],
                     [ 2.84405200E+00,  6.13797400E-03, -2.23034500E-06,
                       3.78516100E-10, -2.45215900E-14,  1.64378100E+04,
                       5.45269700E+00])),
        note='121286')

species(name='CH4',
        atoms='H:4 C:1',
        thermo=(NASA([300.00, 1000.00],
                     [ 7.78741500E-01,  1.74766800E-02, -2.78340900E-05,
                       3.04970800E-08, -1.22393100E-11, -9.82522900E+03,
                       1.37221900E+01]),
                NASA([1000.00, 5000.00],
                     [ 1.68347900E+00,  1.02372400E-02, -3.87512900E-06,
                       6.78558500E-10, -4.50342300E-14, -1.00807900E+04,
                       9.62339500E+00])),
        note='121286')

species(name='HO2',
        atoms='H:1 O:2',
        thermo=(NASA([300.00, 1390.00],
                     [ 3.18310656E+00,  3.66767950E-03, -9.32385122E-07,
                      -3.25852919E-10,  1.51139912E-13,  8.09181013E+02,
                       8.39371099E+00]),
                NASA([1390.00, 5000.00],
                     [ 4.10547423E+00,  2.38452835E-03, -8.06347989E-07,
                       1.24191723E-10, -7.16400108E-15,  3.98127689E+02,
                       3.12515836E+00])),
        note='8/12/99THERM')

species(name='H2O2',
        atoms='H:2 O:2',
        thermo=(NASA([300.00, 1000.00],
                     [ 3.38875400E+00,  6.56922600E-03, -1.48501300E-07,
                      -4.62580600E-09,  2.47151500E-12, -1.76631500E+04,
                       6.78536300E+00]),
                NASA([1000.00, 5000.00],
                     [ 4.57316700E+00,  4.33613600E-03, -1.47468900E-06,
                       2.34890400E-10, -1.43165400E-14, -1.80069600E+04,
                       5.01137000E-01])),
        note='120186')

species(name='CH2O',
        atoms='H:2 C:1 O:1',
        thermo=(NASA([300.00, 1000.00],
                     [ 1.65273100E+00,  1.26314400E-02, -1.88816800E-05,
                       2.05003100E-08, -8.41323700E-12, -1.48654000E+04,
                       1.37848200E+01]),
                NASA([1000.00, 5000.00],
                     [ 2.99560600E+00,  6.68132100E-03, -2.62895500E-06,
                       4.73715300E-10, -3.21251700E-14, -1.53203700E+04,
                       6.91257200E+00])),
        note='121286')

species(name='CH3O',
        atoms='H:3 C:1 O:1',
        thermo=(NASA([300.00, 1000.00],
                     [ 2.10620400E+00,  7.21659500E-03,  5.33847200E-06,
                      -7.37763600E-09,  2.07561100E-12,  9.78601100E+02,